[General]
sim-time-limit = 10000s
network = Airport

[Config Deterministic]
**.interarrivalDistr = "constant"

[Config Exponential]
**.interarrivalDistr = "exponential"
**.interarrivalTime = 500s